Version 4
SHEET 1 1764 1784
WIRE -3152 464 -3456 464
WIRE -2896 464 -3152 464
WIRE -2704 464 -2816 464
WIRE -2544 464 -2704 464
WIRE -2432 464 -2544 464
WIRE -3456 512 -3456 464
WIRE -3456 624 -3456 592
WIRE -2704 624 -2704 464
WIRE -3456 656 -3456 624
WIRE -2432 656 -2432 464
WIRE -3456 928 -3456 736
WIRE -2704 928 -2704 704
WIRE -2704 928 -3456 928
WIRE -2432 928 -2432 736
WIRE -2432 928 -2704 928
WIRE -2384 928 -2432 928
WIRE -2384 960 -2384 928
FLAG -2384 960 0
FLAG -3456 624 v1
FLAG -3152 464 Uin
FLAG -2544 464 Utap
SYMBOL Misc\\signal -3456 640 R0
WINDOW 123 24 132 Left 2
WINDOW 39 24 160 Left 2
SYMATTR Value2 AC 1
SYMATTR InstName V1
SYMBOL res -2448 640 R0
SYMATTR InstName Rs_nanovna_ch1
SYMATTR Value 50
SYMBOL res -3472 496 R0
SYMATTR InstName Rs_nanovna_ch0
SYMATTR Value 50
SYMBOL res -2720 608 R0
SYMATTR InstName R2
SYMATTR Value 51
SYMBOL res -2800 448 R90
WINDOW 0 0 56 VBottom 2
WINDOW 3 32 56 VTop 2
SYMATTR InstName R3
SYMATTR Value 2500
TEXT -3008 992 Left 2 !.ac dec 1000 1k 100Meg
TEXT -3528 328 Left 2 ;2) NanoVNA S21 measurement (RF Path unterminated)
TEXT -2984 400 Left 2 ;Uin/v1 = 0.5/1=0.5 (-6dB) => Calibration_Adjustment = 6dB
TEXT -2088 480 Left 2 ;V1 = 1V\nUin = 0.981V\nUtap = 9.804mV\nUtap/V1 = 0.09804 ( -40.172dB)\nLogmag_NanoVna_Reading [dB] = Utap/V1 [dB] + Calibration_Adjustment [dB] = -40.172 + 6 = -34.172dB\n \nUtap/Uin = 0.01 (-40dB)
